!!>>>>>>>>>>>>>>>>>>>>>>>>>>>>>>>>>>>>>>>>>>>>>>>>>>>>>>>>>>>>>>>>>>>>>>
!! NEMO/OCE  Configuration namelist : overwrite reference namelist
!!>>>>>>>>>>>>>>>>>>>>>>>>>>>>>>>>>>>>>>>>>>>>>>>>>>>>>>>>>>>>>>>>>>>>>>
!!                      GYRE PISCES configuration                     !!
!!======================================================================
!!              ***  Domain & Run management namelists  ***           !!
!!                                                                    !!
!!   namrun       parameters of the run
!!   namdom       space and time domain
!!   namcfg       parameters of the configuration                       (default: user defined GYRE)
!!   namwad       Wetting and drying                                    (default: OFF)
!!   namtsd       data: temperature & salinity                          (default: OFF)
!!   namc1d       1D configuration options                              (ln_c1d =T)
!!======================================================================
!
!-----------------------------------------------------------------------
&namrun        !   parameters of the run
!-----------------------------------------------------------------------
   cn_exp      =  "{{ casename }}"  !  experience name
   nn_it000    =       1   !  first time step
   nn_itend    =     864   !  last  time step
   nn_leapy    =      30   !  Leap year calendar (1) or not (0)
   nn_stock    =    8640   !  frequency of creation of a restart file (modulo referenced to 1)
   nn_write    =      8640  !  frequency of write in the output file   (modulo referenced to nn_it000)
   nn_istate   =         1  !  output the initial state (1) or not (0)
/
!-----------------------------------------------------------------------
&namcfg        !   parameters of the configuration                      (default: user defined GYRE)
!-----------------------------------------------------------------------
   ln_read_cfg = .true.   !  (=F) user defined configuration           (F => create/check namusr_def)
      cn_domcfg = '{{ domain_file }}'  ! domain configuration filename
/
!-----------------------------------------------------------------------
&namtile        !   parameters of the tiling
!-----------------------------------------------------------------------
/
!-----------------------------------------------------------------------
&namtsd        !    Temperature & Salinity Data  (init/dmp)             (default: OFF)
!-----------------------------------------------------------------------
   !                       ! =T  read T-S fields for:
   ln_tsd_init = .true.         !  ocean initialisation
   ln_tsd_dmp  = .true.         !  T-S restoring   (see namtra_dmp)
   cn_dir      = './'      !  root directory for the T-S data location
   !___________!_________________________!___________________!___________!_____________!________!___________!__________________!__________!_______________!
   !           !  file name              ! frequency (hours) ! variable  ! time interp.!  clim  ! 'yearly'/ ! weights filename ! rotation ! land/sea mask !
   !           !                         !  (if <0  months)  !   name    !   (logical) !  (T/F) ! 'monthly' !                  ! pairing  !    filename   !
   sn_tem = '{{ state_file }}',  -12.     , 'toce',   .false.    , .true. , 'yearly'  ,    ''            ,    ''    ,    ''
   sn_sal = '{{ state_file }}',  -12.     , 'soce',   .false.    , .true. , 'yearly'  ,    ''            ,    ''    ,    ''
/
!-----------------------------------------------------------------------
&namdom        !   time and space domain
!-----------------------------------------------------------------------
   rn_Dt      = 3600.     !  time step for the dynamics
/
!!======================================================================
!!            ***  Surface Boundary Condition namelists  ***          !!
!!                                                                    !!
!!   namsbc          surface boundary condition manager                 (default: NO selection)
!!   namsbc_flx      flux               formulation                     (ln_flx     =T)
!!   namsbc_blk      Bulk formulae formulation                          (ln_blk     =T)
!!   namsbc_cpl      CouPLed            formulation                     ("key_oasis3" )
!!   namsbc_sas      Stand-Alone Surface module                         (SAS_SRC  only)
!!   namsbc_iif      Ice-IF: use observed ice cover                     (nn_ice = 1   )
!!   namtra_qsr      penetrative solar radiation                        (ln_traqsr  =T)
!!   namsbc_ssr      sea surface restoring term (for T and/or S)        (ln_ssr     =T)
!!   namsbc_rnf      river runoffs                                      (ln_rnf     =T)
!!   namsbc_apr      Atmospheric Pressure                               (ln_apr_dyn =T)
!!   namsbc_isf      ice shelf melting/freezing                         (ln_isfcav  =T : read (ln_read_cfg=T) or set or usr_def_zgr )
!!   namsbc_iscpl    coupling option between land ice model and ocean   (ln_isfcav  =T)
!!   namsbc_wave     external fields from wave model                    (ln_wave    =T)
!!   namberg         iceberg floats                                     (ln_icebergs=T)
!!======================================================================
!
!-----------------------------------------------------------------------
&namsbc        !   Surface Boundary Condition (surface module)          (default: NO selection)
!-----------------------------------------------------------------------
   nn_fsbc     = 1         !  frequency of SBC module call
      !                    !  (control sea-ice & iceberg model call)
                     ! Type of air-sea fluxes
   ln_usr      = .false.   !  user defined formulation                  (T => check usrdef_sbc)
   ln_flx      = .true.    !  flux formulation                          (T => fill namsbc_flx )
   ln_blk      = .false.   !  Bulk formulation                          (T => fill namsbc_blk )
   nn_ice      = 0         !  =0 no ice boundary condition
                     ! Misc. options of sbc :
   ln_ssr      = .true.    !  Sea Surface Restoring on T and/or S       (T => fill namsbc_ssr)
   nn_fwb      = 0         !  FreshWater Budget: =0 unchecked
/
!-----------------------------------------------------------------------
&namsbc_flx    !   surface boundary condition : flux formulation        (ln_flx =T)
!-----------------------------------------------------------------------
   !___________!_________________________!___________________!___________!_____________!________!___________!__________________!__________!_______________!
   !           !  file name              ! frequency (hours) ! variable  ! time interp.!  clim  ! 'yearly'/ ! weights filename ! rotation ! land/sea mask !
   !           !                         !  (if <0  months)  !   name    !   (logical) !  (T/F) ! 'monthly' !                  ! pairing  !    filename   !
   sn_utau     = '{{ forcing_file }}'        ,       -12         , 'utau'    , .false.      , .true. , 'yearly'  , ''       , ''       , ''
   sn_vtau     = '{{ forcing_file }}'        ,       -12         , 'vtau'    , .false.      , .true. , 'yearly'  , ''       , ''       , ''
   sn_qtot     = '{{ forcing_file }}'        ,       -12         , 'qtot'    , .false.      , .true. , 'yearly'  , ''       , ''       , ''
   sn_qsr      = '{{ forcing_file }}'        ,       -12         , 'qsr'     , .false.      , .true. , 'yearly'  , ''       , ''       , ''
   sn_emp      = '{{ forcing_file }}'        ,       -12         , 'emp'     , .false.      , .true. , 'yearly'  , ''       , ''       , ''
   !
   cn_dir      = './'      !  root directory for the fluxes data location
/
!-----------------------------------------------------------------------
&namsbc_ssr    !   surface boundary condition : sea surface restoring   (ln_ssr =T)
!-----------------------------------------------------------------------
   nn_sstr     =     0     !  add a retroaction term to the surface heat flux (=1) or not (=0)
      rn_dqdt     = -80.      !  magnitude of the retroaction on temperature   [W/m2/K]
   nn_sssr     =     0     !  add a damping term to the surface freshwater flux (=2)
      !                    !  or to SSS only (=1) or no damping term (=0)
      rn_deds     =  -166.67  !  magnitude of the damping on salinity   [mm/day]
      ln_sssr_bnd =  .true.   !  flag to bound erp term (associated with nn_sssr=2)
      rn_sssr_bnd =   4.e0    !  ABS(Max/Min) value of the damping erp term [mm/day]

   cn_dir      = './'      !  root directory for the SST/SSS data location
   !___________!_________________________!___________________!___________!_____________!________!___________!__________________!__________!_______________!
   !           !  file name              ! frequency (hours) ! variable  ! time interp.!  clim  ! 'yearly'/ ! weights filename ! rotation ! land/sea mask !
   !           !                         !  (if <0  months)  !   name    !   (logical) !  (T/F) ! 'monthly' !                  ! pairing  !    filename   !
   sn_sst      = '{{ state_file }}'       ,        -12        ,  'sst'   ,    .false.  , .true. , 'yearly'  ,    ''    ,    ''    ,     ''
   sn_sss      = '{{ state_file }}'       ,        -12        ,  'sss'   ,    .false.  , .true. , 'yearly'  ,    ''    ,    ''    ,     ''
/
!!======================================================================
!!               ***  Lateral boundary condition  ***                 !!
!!                                                                    !!
!!   namlbc        lateral momentum boundary condition                  (default: NO selection)
!!   namagrif      agrif nested grid ( read by child model only )       ("key_agrif")
!!   nam_tide      Tidal forcing                                        (default: OFF)
!!   nambdy        Unstructured open boundaries                         (default: OFF)
!!   nambdy_dta    Unstructured open boundaries - external data         (see  nambdy)
!!   nambdy_tide   tidal forcing at open boundaries                     (default: OFF)
!!======================================================================
!
!-----------------------------------------------------------------------
&namlbc        !   lateral momentum boundary condition                  (default: NO selection)
!-----------------------------------------------------------------------
   rn_shlat    =    2.     !  free slip
/
!!======================================================================
!!                ***  Top/Bottom boundary condition  ***             !!
!!                                                                    !!
!!   namdrg        top/bottom drag coefficient                          (default: NO selection)
!!   namdrg_top    top    friction                                      (ln_drg_OFF=F & ln_isfcav=T)
!!   namdrg_bot    bottom friction                                      (ln_drg_OFF=F)
!!   nambbc        bottom temperature boundary condition                (default: OFF)
!!   nambbl        bottom boundary layer scheme                         (default: OFF)
!!======================================================================
!
!-----------------------------------------------------------------------
&namdrg        !   top/bottom drag coefficient                          (default: NO selection)
!-----------------------------------------------------------------------
   ln_drg_OFF  = .false.   !  free-slip       : Cd = 0                  (F => fill namdrg_bot
   ln_lin      = .true.    !      linear  drag: Cd = Cd0 Uc0                   &   namdrg_top)
   ln_non_lin  = .false.   !  non-linear  drag: Cd = Cd0 |U|
   ln_loglayer = .false.   !  logarithmic drag: Cd = vkarmn/log(z/z0) |U|
/
!-----------------------------------------------------------------------
&namdrg_bot    !   BOTTOM friction                                      (ln_drg_OFF =F)
!-----------------------------------------------------------------------
   rn_Cd0      =  2.75e-3  !  drag coefficient [-]
   rn_Uc0      =  0.4      !  ref. velocity [m/s] (linear drag=Cd0*Uc0)
/
!!======================================================================
!!                        Tracer (T & S) namelists                    !!
!!                                                                    !!
!!   nameos        equation of state                                    (default: NO selection)
!!   namtra_adv    advection scheme                                     (default: NO selection)
!!   namtra_ldf    lateral diffusion scheme                             (default: NO selection)
!!   namtra_mle    mixed layer eddy param. (Fox-Kemper param.)          (default: OFF)
!!   namtra_eiv    eddy induced velocity param.                         (default: OFF)
!!   namtra_dmp    T & S newtonian damping                              (default: OFF)
!!======================================================================
!
!-----------------------------------------------------------------------
&nameos        !   ocean Equation Of Seawater                           (default: NO selection)
!-----------------------------------------------------------------------
   ln_teos10   = .false.         !  = Use TEOS-10
   ln_eos80    = .false.         !  = Use EOS80
   ln_seos     = .true.          !  = Use S-EOS (simplified Eq.)
                                 !
   !                     ! S-EOS coefficients (ln_seos=T):
   !                             !  rd(T,S,Z)*rho0 = -a0*(1+.5*lambda*dT+mu*Z+nu*dS)*dT+b0*dS
   rn_a0       =  2.07e-1        !  thermal expension coefficient
   rn_b0       =  0.0            !  saline  expension coefficient
   rn_lambda1  =  0.0            !  cabbeling coeff in T^2  (=0 for linear eos)
   rn_lambda2  =  0.0            !  cabbeling coeff in S^2  (=0 for linear eos)
   rn_mu1      =  0.0            !  thermobaric coeff. in T (=0 for linear eos)
   rn_mu2      =  0.0            !  thermobaric coeff. in S (=0 for linear eos)
   rn_nu       =  0.0            !  cabbeling coeff in T*S  (=0 for linear eos)
/
!-----------------------------------------------------------------------
&namtra_adv    !   advection scheme for tracer                          (default: NO selection)
!-----------------------------------------------------------------------
   ln_traadv_fct =  .true.   !  FCT scheme
      nn_fct_h   =  2               !  =2/4, horizontal 2nd / 4th order
      nn_fct_v   =  2               !  =2/4, vertical   2nd / COMPACT 4th order
/
!-----------------------------------------------------------------------
&namtra_ldf    !   lateral diffusion scheme for tracers                 (default: NO selection)
!-----------------------------------------------------------------------
   ln_traldf_lap   =  .true.   !    laplacian operator
   ln_traldf_iso   =  .false.   !  iso-neutral (standard operator)
   ln_traldf_hor   =  .true.   !  horizontal  (geopotential)
   ln_traldf_iso   =  .false.  !  iso-neutral (standard operator)
   nn_aht_ijk_t    = 0         !  = 0           constant
      rn_Ud        = 0.02           !  lateral diffusive velocity [m/s] (nn_aht_ijk_t= 0, 10, 20, 30)
      rn_Ld        = 200.e+3        !  lateral diffusive length   [m]   (nn_aht_ijk_t= 0, 10)
/
!-----------------------------------------------------------------------
&namtra_eiv    !   eddy induced velocity param.                         (default: OFF)
!-----------------------------------------------------------------------
   ln_ldfeiv     = .false.       ! use eddy induced velocity parameterization
      !                        !  Coefficients:
      nn_aei_ijk_t    = 0           !  space/time variation of eddy coefficient:
      !                             !   =-20 (=-30)    read in eddy_induced_velocity_2D.nc (..._3D.nc) file
      !                             !   =  0           constant
      !                             !   = 32 F(i,j,t)  = GEOMETRIC parameterization        (=> fill namldf_eke)
      !                        !  time invariant coefficients:  aei0 = 1/2  Ue*Le
      rn_Ue        = 0.02           !  lateral diffusive velocity [m/s] (nn_aht_ijk_t= 0, 10, 20, 30)
      rn_Le        = 100.e+3        !  lateral diffusive length   [m]   (nn_aht_ijk_t= 0, 10)
      !
/
!!======================================================================
!!                      ***  Dynamics namelists  ***                  !!
!!                                                                    !!
!!   nam_vvl       vertical coordinate options                          (default: z-star)
!!   namdyn_adv    formulation of the momentum advection                (default: NO selection)
!!   namdyn_vor    advection scheme                                     (default: NO selection)
!!   namdyn_hpg    hydrostatic pressure gradient                        (default: NO selection)
!!   namdyn_spg    surface pressure gradient                            (default: NO selection)
!!   namdyn_ldf    lateral diffusion scheme                             (default: NO selection)
!!   namdta_dyn    offline TOP: dynamics read in files                  (OFF_SRC only)
!!======================================================================
!
!-----------------------------------------------------------------------
&namdyn_adv    !   formulation of the momentum advection                (default: NO selection)
!-----------------------------------------------------------------------
   ln_dynadv_vec = .true.  !  vector form - 2nd centered scheme
     nn_dynkeg     = 0        ! grad(KE) scheme: =0   C2  ;  =1   Hollingsworth correction
/
!-----------------------------------------------------------------------
&namdyn_vor    !   Vorticity / Coriolis scheme                          (default: NO selection)
!-----------------------------------------------------------------------
   ln_dynvor_ene = .true.  !  energy conserving scheme
/
!-----------------------------------------------------------------------
&namdyn_hpg    !   Hydrostatic pressure gradient option                 (default: NO selection)
!-----------------------------------------------------------------------
   ln_hpg_zco  = .false.   !  z-coordinate - full steps
   ln_hpg_sco  = .true.    !  s-coordinate (standard jacobian formulation)
/
!-----------------------------------------------------------------------
&namdyn_spg    !   surface pressure gradient                            (default: NO selection)
!-----------------------------------------------------------------------
   ln_dynspg_ts  = .true.  !  split-explicit free surface
!MLF      nn_bt_flt     = 1          ! Time filtering with nn_e width boxcard averaging
!MLF      rn_bt_alpha   = 0.         ! Dissipative Forward Backward parameter
      nn_bt_flt     = 3          ! Time filtering with dissipative Forward Backward
      rn_bt_alpha   = 0.07       ! Dissipative Forward Backward parameter
/
!-----------------------------------------------------------------------
&namdyn_ldf    !   lateral diffusion on momentum                        (default: NO selection)
!-----------------------------------------------------------------------
   !                       !  Type of the operator :
   ln_dynldf_lap = .true.      !    laplacian operator
   ln_dynldf_blp = .false.     !  bilaplacian operator
   !                       !  Direction of action  :
   ln_dynldf_lev = .false.     !  iso-level
   ln_dynldf_hor = .true.      !  horizontal  (geopotential)
   ln_dynldf_iso = .false.     !  iso-neutral (lap only)
   !                       !  Coefficient
   nn_ahm_ijk_t  = 0           !  space/time variation of eddy coefficient :
      !                             !  =-30  read in eddy_viscosity_3D.nc file
      !                             !  =-20  read in eddy_viscosity_2D.nc file
      !                             !  =  0  constant
      !                        !  time invariant coefficients :  ahm = 1/2  Uv*Lv   (lap case)
      !                             !                            or  = 1/12 Uv*Lv^3 (blp case)
      rn_Uv      = 0.1              !  lateral viscous velocity [m/s] (nn_ahm_ijk_t= 0, 10, 20, 30)
      rn_Lv      = 100.e+3          !  lateral viscous length   [m]   (nn_ahm_ijk_t= 0, 10)
/
!!======================================================================
!!                     vertical physics namelists                     !!
!!                                                                    !!
!!    namzdf        vertical physics manager                            (default: NO selection)
!!    namzdf_ric    richardson number vertical mixing                   (ln_zdfric=T)
!!    namzdf_tke    TKE vertical mixing                                 (ln_zdftke=T)
!!    namzdf_gls    GLS vertical mixing                                 (ln_zdfgls=T)
!!    namzdf_osm    OSM vertical diffusion                              (ln_zdfosm=T)
!!    namzdf_iwm    tidal mixing parameterization                       (ln_zdfiwm=T)
!!======================================================================
!
!-----------------------------------------------------------------------
&namzdf        !   vertical physics                                     (default: NO selection)
!-----------------------------------------------------------------------
   ln_zdftke   = .true.       !  Turbulent Kinetic Energy closure       (T =>   fill namzdf_tke)
   ln_zdfevd   = .true.       !  enhanced vertical diffusion
      nn_evdm     =    1         ! apply on tracer (=0) or on tracer and momentum (=1)
      rn_evd      =  100.        ! mixing coefficient [m2/s]
   !                       ! coefficients
   rn_avm0     =   1.2e-4     !  vertical eddy viscosity   [m2/s]       (background Kz if ln_zdfcst=F)
   rn_avt0     =   1.2e-5     !  vertical eddy diffusivity [m2/s]       (background Kz if ln_zdfcst=F)
   nn_avb      =    0         !  profile for background avt & avm (=1) or not (=0)
   nn_havtb    =    0         !  horizontal shape for avtb (=1) or not (=0)
/
!-----------------------------------------------------------------------
&namzdf_tke    !   turbulent eddy kinetic dependent vertical diffusion  (ln_zdftke =T)
!-----------------------------------------------------------------------
   nn_etau     =   0       !  penetration of tke below the mixed layer (ML) due to internal & intertial waves
!!!!!!!!!!
!! JM 23 Apr 24: hacked the code to have an artifical amplification of vertical tracer diffusivity over a region
!!   nn_havtb    =    1      !  horizontal shape for avtb (=1) or not (=0)
!!   rn_avt_amp  =  250.0    ! amplifcation factor of rn_avt0 over sponge region
!!!!!!!!!!
/
!!======================================================================
!!                  ***  Diagnostics namelists  ***                   !!
!!                                                                    !!
!!   namtrd       dynamics and/or tracer trends                         (default: OFF)
!!   namdiu       Cool skin and warm layer models                       (default: OFF)
!!   namdiu       Cool skin and warm layer models                       (default: OFF)
!!   nam_diadct   transports through some sections                      (default: OFF)
!!   namnc4       netcdf4 chunking and compression settings
!!======================================================================
!
!!======================================================================
!!                  ***  Miscellaneous namelists  ***                 !!
!!                                                                    !!
!!   nammpp            Massively Parallel Processing
!!   namctl            Control prints                                   (default: OFF)
!!   namsto            Stochastic parametrization of EOS                (default: OFF)
!!======================================================================
!
!
!-----------------------------------------------------------------------
&nammpp        !   Massively Parallel Processing
!-----------------------------------------------------------------------
/
!-----------------------------------------------------------------------
&namctl        !   Control prints                                       (default: OFF)
!-----------------------------------------------------------------------
/
!-----------------------------------------------------------------------
&namsto        ! Stochastic parametrization of EOS                      (default: OFF)
!-----------------------------------------------------------------------
/
